Circuit: * C:\Users\aites\Documents\LTspiceXVII\OP_AMP_Substractor\Op_AMP_Substractor.asc


Date: Sun Jun 12 13:04:30 2022
Total elapsed time: 0.083 seconds.

tnom = 27
temp = 27
method = trap
totiter = 263
traniter = 0
tranpoints = 0
accept = 0
rejected = 0
matrix size = 9
fillins = 1
solver = Normal
Matrix Compiler1: 296 bytes object code size  0.2/0.2/[0.2]
Matrix Compiler2: off  [0.2]/0.4/0.2

